tests/data/state_estimation/node-injection-sensor-and-zero-injection-deprecated/input.json
{
  "version": "1.0",
  "type": "input",
  "is_batch": false,
  "attributes": {},
  "data": {
    "node": [
      {
        "id": 1,
        "u_rated": 100.0
      },
      {
        "id": 2,
        "u_rated": 100.0
      }
    ],
    "line": [
      {
        "id": 4,
        "from_node": 1,
        "to_node": 2,
        "from_status": 1,
        "to_status": 1,
        "r1": 0.1,
        "x1": 0.0,
        "c1": 0.0,
        "tan1": 0.0,
        "i_n": 1000.0
      }
    ],
    "source": [
      {
        "id": 6,
        "node": 1,
        "status": 1,
        "u_ref": 1.0
      }
    ],
    "sym_voltage_sensor": [
      {
        "id": 101,
        "measured_object": 1,
        "u_measured": 100.0,
        "u_sigma": 1.0
      }
    ],
    "sym_power_sensor": [
      {
        "id": 401,
        "measured_object": 2,
        "measured_terminal_type": 9,
        "p_measured": 100e3,
        "q_measured": 100e3,
        "power_sigma": 1e3
      }
    ]
  }
}